Circuit: * C:\Users\chris\Desktop\ECEN 403\Power System Simulation.asc

Direct Newton iteration for .op point succeeded.

Date: Mon Feb 25 02:57:44 2019
Total elapsed time: 14.049 seconds.

tnom = 27
temp = 27
method = modified trap
totiter = 713727
traniter = 713698
tranpoints = 186140
accept = 138148
rejected = 47992
matrix size = 75
fillins = 55
solver = Normal
Thread vector: 13.0/9.4[5] 6.6/2.9[5] 2.3/1.3[5] 0.4/1.3[1]  2592/500
Matrix Compiler1: 7.28 KB object code size  2.2/1.3/[0.7]
Matrix Compiler2: 6.99 KB object code size  0.7/1.7/[0.4]

